[General]
network = sdn_dashboard.simulations.networks.CloudTopology
sim-time-limit = 1000s
cmdenv-express-mode = true
cmdenv-autoflush = true

# Network Configuration
*.configurator.config = xml("<config><interface hosts='**' address='10.x.x.x' netmask='255.255.255.0'/></config>")

# Tenant Configuration
*.numTenants = 3
*.hostsPerTenant = 4

# Host Applications (traffic generation)
*.host[*].numApps = 2

# UDP sender application
*.host[*].app[0].typename = "UdpBasicApp"
*.host[*].app[0].destAddresses = "host[" + string(intuniform(0,11)) + "]"
*.host[*].app[0].destPort = 5000
*.host[*].app[0].messageLength = 1000B
*.host[*].app[0].sendInterval = exponential(1s)
*.host[*].app[0].startTime = uniform(0s, 10s)

# UDP sink application
*.host[*].app[1].typename = "UdpSink"
*.host[*].app[1].localPort = 5000

# Ethernet Settings
**.eth[*].queue.typename = "DropTailQueue"
**.eth[*].queue.packetCapacity = 100

# Recording
**.scalar-recording = true
**.vector-recording = true
