[General]
network = sdn_dashboard.simulations.networks.SliceableCloudTopology
sim-time-limit = 1000s
cmdenv-express-mode = true

# Slicing configuration
*.numSlices = 3
*.hostsPerSlice = 4

# Network configuration with slice-aware addressing
*.configurator.config = xmldoc("network-config.xml")

# Slice 0: Tenant A (VLAN 10) - 10.0.10.x
*.host[0..3].numApps = 1
*.host[0..3].app[0].typename = "PingApp"
*.host[0..3].app[0].destAddr = "host[" + string(int(uniform(0,3))) + "]"
*.host[0..3].app[0].startTime = uniform(1s, 5s)
*.host[0..3].app[0].sendInterval = 1s

# Slice 1: Tenant B (VLAN 20) - 10.0.20.x
*.host[4..7].numApps = 1
*.host[4..7].app[0].typename = "PingApp"
*.host[4..7].app[0].destAddr = "host[" + string(int(uniform(4,7))) + "]"
*.host[4..7].app[0].startTime = uniform(1s, 5s)
*.host[4..7].app[0].sendInterval = 1s

# Slice 2: Tenant C (VLAN 30) - 10.0.30.x
*.host[8..11].numApps = 1
*.host[8..11].app[0].typename = "PingApp"
*.host[8..11].app[0].destAddr = "host[" + string(int(uniform(8,11))) + "]"
*.host[8..11].app[0].startTime = uniform(1s, 5s)
*.host[8..11].app[0].sendInterval = 1s

# Statistics recording
**.scalar-recording = true
**.vector-recording = true
