[General]
network = sdn_dashboard.simulations.networks.SliceableCloudTopology
sim-time-limit = 1s
cmdenv-express-mode = true

# Slicing configuration
*.numSlices = 3
*.hostsPerSlice = 4

# Network configuration with slice-aware addressing
*.configurator.config = xmldoc("network-config.xml")

# NO APPLICATIONS - just test that network initializes
*.host[*].numApps = 0

# Statistics recording
**.scalar-recording = true
**.vector-recording = false

